/*--------------------------------*- C++ -*----------------------------------*\
| =========                 |                                                 |
| \\      /  F ield         | OpenFOAM: The Open Source CFD Toolbox           |
|  \\    /   O peration     | Version:  plus                                  |
|   \\  /    A nd           | Web:      www.OpenFOAM.com                      |
|    \\/     M anipulation  |                                                 |
\*---------------------------------------------------------------------------*/
FoamFile
{
    version     2.0;
    format      ascii;
    class       dictionary;
    object      blockMeshDict;
}
// * * * * * * * * * * * * * * * * * * * * * * * * * * * * * * * * * * * * * //

convertToMeters 1;

vertices
(
    (-26 -19 -16) //1
    (16 -19 -16)  //2
    (16 0 -16)    //3
    (-26 0 -16)   //4

    (-26 -19 -1)  //5
    (16 -19 -1)   //6
    (16 0 -1)     //7
    (-26 0 -1)    //8

    (-26 -19 0.185) //9
    (16 -19 0.185)  //10
    (16 0 0.185)    //11
    (-26 0 0.185)   //12

    (-26 -19 0.244)  //13
    (16 -19 0.244)  //14
    (16 0 0.244)  //15
    (-26 0 0.244) //16

    (-26 -19 0.3) //17
    (16 -19 0.3)  //18
    (16 0 0.3)  //19
    (-26 0 0.3) //20

    (-26 -19 1.6) //21
    (16 -19 1.6)  //22
    (16 0 1.6)    //23
    (-26 0 1.6)   //24

    (-26 -19 4)   //25
    (16 -19 4)    //26
    (16 0 4)      //27
    (-26 0 4)     //28
);

blocks
(
    hex (0 1 2 3 4 5 6 7) (10 19 50) simpleGrading (1 1 0.05)
    hex (4 5 6 7 8 9 10 11) (10 19 50) simpleGrading (1 1 1)
    hex (8 9 10 11 12 13 14 15) (10 19 4) simpleGrading (1 1 1)
    hex (12 13 14 15 16 17 18 19) (10 19 4) simpleGrading (1 1 1)
    hex (16 17 18 19 20 21 22 23) (10 19 40) simpleGrading (1 1 1)
    hex (20 21 22 23 24 25 26 27) (10 19 20) simpleGrading (1 1 5)
);

edges
(
);

boundary
(
    atmosphere
    {
        type patch;
        faces
        (
            (24 25 26 27)
        );
    }
    inlet
    {
        type patch;
        faces
        (
            (1 2 6 5)
            (5 6 10 9)
            (9 10 14 13)
            (13 14 18 17)
            (17 18 22 21)
            (21 22 26 25)
        );
    }
    outlet
    {
        type patch;
        faces
        (
            (0 4 7 3)
            (4 8 11 7)
            (8 12 15 11)
            (12 16 19 15)
            (16 20 23 19)
            (20 24 27 23)
        );
    }
    bottom
    {
        type symmetryPlane;
        faces
        (
            (0 3 2 1)
        );
    }
    side
    {
        type symmetryPlane;
        faces
        (
            (0 1 5 4)
            (4 5 9 8)
            (8 9 13 12)
            (12 13 17 16)
            (16 17 21 20)
            (20 21 25 24)
        );
    }
    midPlane
    {
        type symmetryPlane;
        faces
        (
            (3 7 6 2)
            (7 11 10 6)
            (11 15 14 10)
            (15 19 18 14)
            (19 23 22 18)
            (23 27 26 22)
        );
    }
);

mergePatchPairs
(
);

// ************************************************************************* //
