/*--------------------------------*- C++ -*----------------------------------*\
| =========                 |                                                 |
| \\      /  F ield         | OpenFOAM: The Open Source CFD Toolbox           |
|  \\    /   O peration     | Version:  v1706                                 |
|   \\  /    A nd           | Web:      www.OpenFOAM.com                      |
|    \\/     M anipulation  |                                                 |
\*---------------------------------------------------------------------------*/
FoamFile
{
    version     2.0;
    format      ascii;
    class       polyBoundaryMesh;
    location    "constant/polyMesh";
    object      boundary;
}
// * * * * * * * * * * * * * * * * * * * * * * * * * * * * * * * * * * * * * //

2
(
    sides
    {
        type            overset;
        nFaces          3200;
        startFace       26504;
        faces           ( ( 0 3 2 1 ) ( 2 6 5 1 ) ( 1 5 4 0 ) ( 3 7 6 2 ) ( 0 4 7 3 ) ( 4 5 6 7 ) );
    }
    floatingObject
    {
        type            wall;
        inGroups        1(wall);
        nFaces          1104;
        startFace       29704;
    }
)

// ************************************************************************* //
